Demanda/NewEngland_New.m

function mpc = NewEngland_New()
% function mpc = NewEngland_New()
%CASE New England    
%   Power flow data for 39 bus, 10 generator New England case.
%   Please see CASEFORMAT for details on the case file format.
%
%   Based on data from: Pai M.A.: ‘Energy Function Analysis for
%   Power System Stability’, Kluwer Academic Publishers, 1989.

%   MATPOWER
%   $Id: case9.m,v 1.11 2010/03/10 18:08:14 ray Exp $

%% MATPOWER Case Format : Version 2
mpc.version = '2';

%%-----  Power Flow Data  -----%%
%% system MVA base
mpc.baseMVA = 100;

%% bus data
%	bus_i	type	Pd	Qd	Gs	Bs	area	Vm	Va	baseKV	zone	Vmax	Vmin
%Bus   kVb    V_o     ang_o  Area Reg
%num
mpc.bus = [
  1	  1 0       0       0	0	1	1	0	1.00    1	 1.05	0.95;
  2	  1 0       0       0	0	1	1	0	1.00    1	 1.05	0.95;
  3	  1 322     2.40    0	0	1	1	0	1.00    1	 1.05	0.95;
  4	  1 500     184     0	0	1	1	0	1.00    1	 1.05	0.95;
  5	  1 0       0       0	0	1	1	0	1.00    1	 1.05	0.95;
  6	  1 0       0       0	0	1	1	0	1.00    1	 1.05	0.95;
  7	  1 233.8   84      0	0	1	1	0	1.00    1	 1.05	0.95;
  8	  1 522     176     0	0	1	1	0	1.00    1	 1.05	0.95;
  9	  1 0       0       0	0	1	1	0	1.00    1	 1.05	0.95;
 10	  1 0       0       0	0	1	1	0	1.00    1	 1.05	0.95;
 11	  1 0       0       0	0	1	1	0	1.00    1	 1.05	0.95;
 12	  1 7.5     88      0	0	1	1	0	1.00    1	 1.05	0.95;
 13	  1 0       0       0	0	1	1	0	1.00    1	 1.05	0.95;
 14	  1 0       0       0	0	1	1	0	1.00    1	 1.05	0.95;
 15	  1 320     153     0	0	1	1	0	1.00    1	 1.05	0.95;
 16	  1 329     32.3    0	0	1	1	0	1.00    1	 1.05	0.95;
 17	  1 0       0       0	0	1	1	0	1.00    1	 1.05	0.95;
 18	  1 158     30      0	0	1	1	0	1.00    1	 1.05	0.95;
 19	  1 0       0       0	0	1	1	0	1.00    1	 1.05	0.95;
 20	  1 628     103     0	0	1	1	0	1.00    1	 1.05	0.95;
 21	  1 274     115     0	0	1	1	0	1.00    1	 1.05	0.95;
 22	  1 0       0       0	0	1	1	0	1.00    1	 1.05	0.95;
 23	  1 247.5   84.6    0	0	1	1	0	1.00    1	 1.05	0.95;
 24	  1 308.6   -92.2   0	0	1	1	0	1.00    1	 1.05	0.95;
 25	  1 224     47.2    0	0	1	1	0	1.00    1	 1.05	0.95;
 26	  1 139     17      0	0	1	1	0	1.00    1	 1.05	0.95;
 27	  1 281     75.5    0	0	1	1	0	1.00    1	 1.05	0.95;
 28	  1 206     27.6    0	0	1	1	0	1.00    1	 1.05	0.95;
 29	  1 283.5   26.9    0	0	1	1	0	1.00    1	 1.05	0.95;
 30	  2 0       0       0	0	1	1	0	1.00    1	 1.05	0.95;
 31	  3 9.2     4.6     0	0	1	1	0	1.00    1	 1.05	0.95;
 32	  2 0       0       0	0	1	1	0	1.00    1	 1.05	0.95;
 33	  2 0       0       0	0	1	1	0	1.00    1	 1.05	0.95;
 34	  2 0       0       0	0	1	1	0	1.00    1	 1.05	0.95;
 35	  2 0       0       0	0	1	1	0	1.00    1	 1.05	0.95;
 36	  2 0       0       0	0	1	1	0	1.00    1	 1.05	0.95;
 37	  2 0       0       0	0	1	1	0	1.00    1	 1.05	0.95;
 38	  2 0       0       0	0	1	1	0	1.00    1	 1.05	0.95;
 39	  2 1104    250     0	0	1	1	0	1.00    1	 1.05	0.95;
];

%% generator data
%	bus	Pg	Qg	Qmax	Qmin	Vg	mBase	status	Pmax	Pmin	Pc1	Pc2	Qc1min	Qc1max	Qc2min	Qc2max	ramp_agc	ramp_10	ramp_30	ramp_q	apf
mpc.gen = [
    39	1000	0	550	-400	1.03	100	1	1000	300	0	0	0	0	0	0	0	0	0	0	0;
    31	0       0	9999 -9999	0.982	100	1	1200 	150	0	0	0	0	0	0	0	0	0	0	0;
	32	650     0	320	-250	0.9831	100	1	750     50	0	0	0	0	0	0	0	0	0	0	0;
    33	632     0	310	-250	0.9972	100	1	700 	120	0	0	0	0	0	0	0	0	0	0	0;
	34	508     0	260	-200	1.0123	100	1	600     150	0	0	0	0	0	0	0	0	0	0	0;
	35	650     0	320	-250	1.0493	100	1	800 	160	0	0	0	0	0	0	0	0	0	0	0;
    36	560     0	280	-200	1.0635	100	1	750     70	0	0	0	0	0	0	0	0	0	0	0;
	37	540     0	280	-200	1.0278	100	1	700     100	0	0	0	0	0	0	0	0	0	0	0;
	38	830     0	410	-300	1.0265	100	1	950     180	0	0	0	0	0	0	0	0	0	0	0;
    30	250     0	150	-100	1.0475	100	1	500     80	0	0	0	0	0	0	0	0	0	0	0;
%     8	0       0	50	 -25    1   	100	1	0       0	0	0	0	0	0	0	0	0	0	0	0;
%     4	0       0	50	 -25    1   	100	1	0       0	0	0	0	0	0	0	0	0	0	0	0;
%     17	0       0	50	 -25    1   	100	1	0       0	0	0	0	0	0	0	0	0	0	0	0; 
 ];

%% branch data
%fbust bus	   r	    x	     b	   rateA	rateB	rateC	ratio	angle	status	angmin	angmax
mpc.branch = [
	1     2	  0.00350  0.04110  0.69870   1100    1200    1000	0       0	1	-360	360;
	1    39	  0.00100  0.02500  0.75000   1100    1200    1000	0       0	1	-360	360;
	2     3	  0.00130  0.01510  0.25720   1100    1200    1000	0       0	1	-360	360;
	2    25	  0.00700  0.00860  0.14600   1100    1200    1000	0       0	1	-360	360;
	3     4	  0.00130  0.02130  0.22140	  1100    1200    1000	0       0	1	-360	360;
	3    18	  0.00110  0.01330  0.21380	  1100    1200    1000	0       0	1	-360	360;
	4     5	  0.00080  0.01280  0.13420   1100    1200    1000	0       0	1	-360	360;
	4    14	  0.00080  0.01290  0.13820	  1100    1200    1000	0       0	1	-360	360;
	5     6	  0.00020  0.00260  0.04340	  1100    1200    1000	0       0	1	-360	360;
    5     8   0.00080  0.01120  0.14760   1100    1200    1000	0       0	1	-360	360;  
    6     7   0.00060  0.00920  0.11300   1100    1200    1000	0       0	1	-360	360;  
    6    11   0.00070  0.00820  0.13890   1100    1200    1000	0       0	1	-360	360;  
    7     8   0.00040  0.00460  0.07800   1100    1200    1000	0       0	1	-360	360;  
    8     9   0.00230  0.03630  0.38040   1100    1200    1000	0       0	1	-360	360;  
    9    39   0.00100  0.02500  1.20000   1100    1200    1000	0       0	1	-360	360;  
    10   11   0.00040  0.00430  0.07290   1100    1200    1000	0       0	1	-360	360;  
    10   13   0.00040  0.00430  0.07290   1100    1200    1000	0       0	1	-360	360; 
    13   14   0.00090  0.01010  0.17230   1100    1200    1000	0       0	1	-360	360;  
    14   15   0.00180  0.02170  0.36600   1100    1200    1000	0       0	1	-360	360;  
    15   16   0.00090  0.00940  0.17100   1100    1200    1000	0       0	1	-360	360;  
    16   17   0.00070  0.00890  0.13420   1100    1200    1000	0       0	1	-360	360;  
    16   19   0.00160  0.01950  0.30400   1100    1200    1000	0       0	1	-360	360;  
    16   21   0.00080  0.01350  0.25480   1100    1200    1000	0       0	1	-360	360; 
    16   24   0.00030  0.00590  0.06800   1100    1200    1000	0       0	1	-360	360;  
    17   18   0.00070  0.00820  0.13190   1100    1200    1000	0       0	1	-360	360;  
    17   27   0.00130  0.01730  0.32160   1100    1200    1000	0       0	1	-360	360;  
    21   22   0.00080  0.01400  0.25650   1100    1200    1000	0       0	1	-360	360;  
    22   23   0.00060  0.00960  0.18460   1100    1200    1000	0       0	1	-360	360;  
    23   24   0.00220  0.03500  0.36100   1100    1200    1000	0       0	1	-360	360; 
    25   26   0.00320  0.03230  0.51300   1100    1200    1000	0       0	1	-360	360;  
    26   27   0.00140  0.01470  0.23960   1100    1200    1000	0       0	1	-360	360;  
    26   28   0.00430  0.04740  0.78020   1100    1200    1000	0       0	1	-360	360;  
    26   29   0.00570  0.06250  1.02900   1100    1200    1000	0       0	1	-360	360;  
    28   29   0.00140  0.01510  0.24900   1100    1200    1000	0       0	1	-360	360;  
    12   11   0.00160  0.04350  0.00000   1100    1200    1000	1.006   0	1	-360	360;  
    12   13   0.00160  0.04350  0.00000   1100    1200    1000	1.006   0	1	-360	360;  
     6   31   0.00000  0.02500  0.00000   1100    1200    1000	1.070   0	1	-360	360;  
    10   32   0.00000  0.02000  0.00000   1100    1200    1000	1.070   0	1	-360	360;  
    19   33   0.00070  0.01420  0.00000   1100    1200    1000	1.070   0	1	-360	360;  
    20   34   0.00090  0.01800  0.00000   1100    1200    1000	1.009   0	1	-360	360;  
    22   35   0.00000  0.01430  0.00000   1100    1200    1000	1.025   0	1	-360	360;  
    23   36   0.00050  0.02720  0.00000   1100    1200    1000	1.000   0	1	-360	360;  
    25   37   0.00060  0.02320  0.00000   1100    1200    1000	1.025   0	1	-360	360;  
     2   30   0.00000  0.01810  0.00000   1100    1200    1000	1.025   0	1	-360	360;  
    29   38   0.00080  0.01560  0.00000   1100    1200    1000	1.025   0	1	-360	360; 
    19   20   0.00070  0.01380  0.00000   1100    1200    1000	1.060   0	1	-360	360;   
];
%%-----  OPF Data  -----%%
% %% area data
% %	area	refbus
% mpc.areas = [
% 	1   5;
% ];

%% generator cost data
%	1	startup	shutdown	n	x1	y1	...	xn	yn
%	2	startup	shutdown	n	c(n-1)	...	c0
mpc.gencost = [
	2	0	0	3	0.0042	32.950  4403.431; 
	2	0	0	3	0.0109	89.702	10948.005;
	2	0	0	3	0.0109	89.702	10948.005;
    2	0	0	3	0.0019  16.298  1948.189;
	2	0	0	3	0.0019  16.298  1948.189;
    2	0	0	3	0.0019  16.298  1948.189;
	2	0	0	3	0.0019  16.298  1948.189;
    2	0	0	3	0.0044	32.956  4181.673;
	2	0	0	3	0.0044	32.956  4181.673;
    2	0	0	3	0.00	0       0;
%     2	0	0	3	0.00	0       0;
%     2	0	0	3	0.00	0       0;
%     2	0	0	3	0.00	0       0;
];
